5
#input: -i ch4_hc.xyz -a1 1 -a2 2 -d +0.2 
C             0.000           0.000           0.000
H             0.744           0.744           0.744
H            -0.628          -0.628           0.628
H             0.628          -0.628          -0.628
H            -0.628           0.628          -0.628
