5
#input: -i ch4_hc.xyz -a1 1 -a2 2 -d +0.1 
C             0.000           0.000           0.000
H             0.686           0.686           0.686
H            -0.628          -0.628           0.628
H             0.628          -0.628          -0.628
H            -0.628           0.628          -0.628
