6
#input: -i h2nnh2_max_nn.xyz -a1 1 -a2 2 -d +0.5 
N             0.000           0.712          -0.073
N             0.000          -1.212          -0.073
H            -0.235           1.097           0.833
H             0.235          -1.597           0.833
H             0.927           1.025          -0.321
H            -0.927          -1.525          -0.321
