8
#input: -i h3cch3_max_cc.xyz -a1 1 -a2 2 -d +0.4 
C             0.000           0.762           0.000
C             0.000          -1.162           0.000
H             1.016           1.157           0.000
H            -1.016          -1.557           0.000
H             0.508          -1.557           0.880
H             0.508          -1.557          -0.880
H            -0.508           1.157           0.880
H            -0.508           1.157          -0.880
