9
#input: -i h3coch3_max_co.xyz -a1 9 -a2 1 -d +0.3 
C             0.000           1.414          -0.360
C             0.000          -1.165          -0.194
H             0.890           1.468          -1.000
H             0.890          -1.219          -0.833
H            -0.890           1.468          -1.000
H             0.000           2.265           0.318
H             0.000          -2.015           0.485
H            -0.890          -1.219          -0.833
O             0.000           0.000           0.586
