5
#input: -i hno3_max_no.xyz -a1 2 -a2 3 -d +0.2 
H            -1.713           0.203           0.000
O            -1.112          -0.555          -0.000
N             0.324           0.120           0.000
O             0.337           1.322           0.000
O             1.226          -0.653           0.000
