5
#input: -i hno3_min_no.xyz -a1 3 -a2 5 -d -0.2 
H            -1.713           0.203           0.000
O            -1.112          -0.555          -0.000
N             0.143           0.035           0.000
O             0.156           1.237          -0.000
O             0.893          -0.608           0.000
