5
#input: -i hno3_max_no.xyz -a1 2 -a2 3 -d +0.3 
H            -1.713           0.203           0.000
O            -1.112          -0.555          -0.000
N             0.415           0.162           0.000
O             0.428           1.365           0.000
O             1.316          -0.611           0.000
