5
#input: -i hno3_max_no.xyz -a1 2 -a2 3 -d +0.1 
H            -1.713           0.203           0.000
O            -1.112          -0.555          -0.000
N             0.234           0.077           0.000
O             0.247           1.280           0.000
O             1.135          -0.696           0.000
