13
#input: -i n_ch3_3_max_cn.xyz -a1 1 -a2 2 -d +0.1 
N            -0.375           0.000           0.000
C             0.091           1.475           0.000
C             0.060          -0.690           1.195
C             0.060          -0.690          -1.195
H             1.190           1.572           0.000
H             1.160          -0.738           1.279
H             1.160          -0.738          -1.279
H            -0.294           1.986          -0.883
H            -0.294           1.986           0.883
H            -0.324          -0.181           2.079
H            -0.324          -1.710           1.196
H            -0.324          -1.710          -1.196
H            -0.324          -0.181          -2.079
