7
#input: -i nglu_xxx_cc.xyz -a1 1 -a2 4 -d +0.1 
C             0.208           0.000          -0.010
O             0.749           1.126           0.002
O             0.750          -1.126           0.002
C            -1.446          -0.000          -0.005
H            -1.787           0.000           1.034
H            -1.839           0.896          -0.487
H            -1.839          -0.896          -0.487
